Version 4
SHEET 1 1476 680
WIRE 464 -832 96 -832
WIRE 592 -832 544 -832
WIRE 704 -832 592 -832
WIRE 1008 -832 704 -832
WIRE 1184 -832 1088 -832
WIRE 592 -816 592 -832
WIRE 704 -768 704 -832
WIRE 1184 -768 1184 -832
WIRE 464 -640 272 -640
WIRE 592 -640 592 -656
WIRE 592 -640 544 -640
WIRE 704 -640 704 -704
WIRE 704 -640 592 -640
WIRE 1008 -640 704 -640
WIRE 1184 -640 1184 -704
WIRE 1184 -640 1088 -640
WIRE 272 -608 272 -640
WIRE 96 -528 96 -832
WIRE 464 -528 96 -528
WIRE 592 -528 544 -528
WIRE 704 -528 592 -528
WIRE 1008 -528 704 -528
WIRE 1184 -528 1088 -528
WIRE 592 -512 592 -528
WIRE 704 -464 704 -528
WIRE 1184 -464 1184 -528
WIRE 464 -336 272 -336
WIRE 592 -336 592 -352
WIRE 592 -336 544 -336
WIRE 704 -336 704 -400
WIRE 704 -336 592 -336
WIRE 1008 -336 704 -336
WIRE 1184 -336 1184 -400
WIRE 1184 -336 1088 -336
WIRE 272 -304 272 -336
WIRE 96 -224 96 -528
WIRE 464 -224 96 -224
WIRE 592 -224 544 -224
WIRE 704 -224 592 -224
WIRE 1008 -224 704 -224
WIRE 1184 -224 1088 -224
WIRE 592 -208 592 -224
WIRE 704 -160 704 -224
WIRE 1184 -160 1184 -224
WIRE 464 -32 272 -32
WIRE 592 -32 592 -48
WIRE 592 -32 544 -32
WIRE 704 -32 704 -96
WIRE 704 -32 592 -32
WIRE 1008 -32 704 -32
WIRE 1184 -32 1184 -96
WIRE 1184 -32 1088 -32
WIRE 272 0 272 -32
WIRE 96 80 96 -224
WIRE 368 80 96 80
WIRE 464 80 448 80
WIRE 608 80 544 80
WIRE 688 80 608 80
WIRE 1008 80 688 80
WIRE 1184 80 1088 80
WIRE 608 96 608 80
WIRE 96 144 96 80
WIRE 688 144 688 80
WIRE 1184 144 1184 80
WIRE 96 272 96 224
WIRE 368 272 96 272
WIRE 464 272 448 272
WIRE 608 272 608 256
WIRE 608 272 544 272
WIRE 688 272 688 208
WIRE 688 272 608 272
WIRE 1008 272 688 272
WIRE 1184 272 1184 208
WIRE 1184 272 1088 272
WIRE 96 304 96 272
FLAG 96 304 0
FLAG 1184 80 Vin1000+
FLAG 1184 272 Vin1000-
FLAG 272 0 0
FLAG 1184 -224 Vin100+
FLAG 1184 -32 Vin100-
FLAG 272 -304 0
FLAG 1184 -528 Vin10+
FLAG 1184 -336 Vin10-
FLAG 272 -608 0
FLAG 1184 -832 Vin1+
FLAG 1184 -640 Vin1-
SYMBOL voltage 96 128 R0
WINDOW 123 24 124 Left 2
WINDOW 39 0 0 Left 0
SYMATTR Value2 AC 1
SYMATTR InstName V1
SYMATTR Value ""
SYMBOL res 464 64 R90
WINDOW 0 0 56 VBottom 2
WINDOW 3 32 56 VTop 2
SYMATTR InstName R2
SYMATTR Value 470k
SYMBOL res 560 64 R90
WINDOW 0 0 56 VBottom 2
WINDOW 3 32 56 VTop 2
SYMATTR InstName R3
SYMATTR Value 470k
SYMBOL cap 1168 144 R0
SYMATTR InstName C1
SYMATTR Value 10p
SYMBOL res 560 -240 R90
WINDOW 0 0 56 VBottom 2
WINDOW 3 32 56 VTop 2
SYMATTR InstName R8
SYMATTR Value 470k
SYMBOL res 576 -144 R0
SYMATTR InstName R9
SYMATTR Value 8k2
SYMBOL res 576 -224 R0
SYMATTR InstName R10
SYMATTR Value 1k3
SYMBOL cap 672 144 R0
SYMATTR InstName C2
SYMATTR Value 82p
SYMBOL res 464 256 R90
WINDOW 0 0 56 VBottom 2
WINDOW 3 32 56 VTop 2
SYMATTR InstName R1
SYMATTR Value 470k
SYMBOL res 560 256 R90
WINDOW 0 0 56 VBottom 2
WINDOW 3 32 56 VTop 2
SYMATTR InstName R11
SYMATTR Value 470k
SYMBOL res 560 -48 R90
WINDOW 0 0 56 VBottom 2
WINDOW 3 32 56 VTop 2
SYMATTR InstName R4
SYMATTR Value 470k
SYMBOL res 592 80 R0
SYMATTR InstName R5
SYMATTR Value 1k2
SYMBOL res 592 160 R0
SYMATTR InstName R12
SYMATTR Value 680
SYMBOL cap 1168 -160 R0
SYMATTR InstName C4
SYMATTR Value 10p
SYMBOL res 560 -544 R90
WINDOW 0 0 56 VBottom 2
WINDOW 3 32 56 VTop 2
SYMATTR InstName R15
SYMATTR Value 51k
SYMBOL res 576 -448 R0
SYMATTR InstName R16
SYMATTR Value 11k
SYMBOL res 576 -528 R0
SYMATTR InstName R17
SYMATTR Value 330
SYMBOL res 560 -352 R90
WINDOW 0 0 56 VBottom 2
WINDOW 3 32 56 VTop 2
SYMATTR InstName R18
SYMATTR Value 51k
SYMBOL cap 1168 -464 R0
SYMATTR InstName C3
SYMATTR Value 10p
SYMBOL res 560 -848 R90
WINDOW 0 0 56 VBottom 2
WINDOW 3 32 56 VTop 2
SYMATTR InstName R21
SYMATTR Value 4k7
SYMBOL res 560 -656 R90
WINDOW 0 0 56 VBottom 2
WINDOW 3 32 56 VTop 2
SYMATTR InstName R24
SYMATTR Value 4k7
SYMBOL cap 1168 -768 R0
SYMATTR InstName C5
SYMATTR Value 10p
SYMBOL res 1104 -848 R90
WINDOW 0 0 56 VBottom 2
WINDOW 3 32 56 VTop 2
SYMATTR InstName R25
SYMATTR Value 220
SYMBOL res 1104 -656 R90
WINDOW 0 0 56 VBottom 2
WINDOW 3 32 56 VTop 2
SYMATTR InstName R26
SYMATTR Value 220
SYMBOL res 1104 -544 R90
WINDOW 0 0 56 VBottom 2
WINDOW 3 32 56 VTop 2
SYMATTR InstName R6
SYMATTR Value 220
SYMBOL res 1104 -352 R90
WINDOW 0 0 56 VBottom 2
WINDOW 3 32 56 VTop 2
SYMATTR InstName R7
SYMATTR Value 220
SYMBOL res 1104 -240 R90
WINDOW 0 0 56 VBottom 2
WINDOW 3 32 56 VTop 2
SYMATTR InstName R13
SYMATTR Value 220
SYMBOL res 1104 -48 R90
WINDOW 0 0 56 VBottom 2
WINDOW 3 32 56 VTop 2
SYMATTR InstName R14
SYMATTR Value 220
SYMBOL res 1104 64 R90
WINDOW 0 0 56 VBottom 2
WINDOW 3 32 56 VTop 2
SYMATTR InstName R19
SYMATTR Value 220
SYMBOL res 1104 256 R90
WINDOW 0 0 56 VBottom 2
WINDOW 3 32 56 VTop 2
SYMATTR InstName R20
SYMATTR Value 220
TEXT 64 328 Left 2 !.ac dec 100 1 10meg
TEXT 1256 168 Left 2 ;1000:1 fc=916kHz\nZin = 1.88M
TEXT 1256 -144 Left 2 ;100:1 fc=1.6MHz\nZin = 950k
TEXT 1256 -448 Left 2 ;10:1 fc=1.49MHz\nZin = 113k
TEXT 1248 -752 Left 2 ;1:1 fc=1.61MHz\nZin = 200k
